
     RDKit          3D

 53 56  0  0  0  0  0  0  0  0999 V2000
   -1.8420   -2.3220   -0.1994 C   0  0  0  0  0  0  0  0  0  0  0  0
   -1.8314   -1.1438   -1.1846 C   0  0  0  0  0  0  0  0  0  0  0  0
   -0.6232   -1.2260   -2.1672 C   0  0  0  0  0  0  0  0  0  0  0  0
    0.7500   -1.7866   -1.7193 C   0  0  0  0  0  0  0  0  0  0  0  0
    1.6154   -0.7294   -1.0397 C   0  0  0  0  0  0  0  0  0  0  0  0
    1.5969   -0.7901    0.4932 C   0  0  0  0  0  0  0  0  0  0  0  0
    2.0942    0.5585    1.0548 C   0  0  0  0  0  0  0  0  0  0  0  0
    3.3433    1.0307    0.3098 C   0  0  0  0  0  0  0  0  0  0  0  0
    3.7585    0.3582   -0.9986 C   0  0  0  0  0  0  0  0  0  0  0  0
    2.9798   -0.7813   -1.4648 O   0  0  0  0  0  0  0  0  0  0  0  0
    3.0947    1.6301   -0.9716 O   0  0  0  0  0  0  0  0  0  0  0  0
    4.3809    1.7546    1.1118 C   0  0  0  0  0  0  0  0  0  0  0  0
    1.0087    1.6722    1.1864 C   0  0  0  0  0  0  0  0  0  0  0  0
   -0.1736    1.7156    0.1913 C   0  0  0  0  0  0  0  0  0  0  0  0
   -1.3696    0.8203    0.5928 C   0  0  0  0  0  0  0  0  0  0  0  0
   -2.2804    0.2696   -0.5640 C   0  0  0  0  0  0  0  0  0  0  0  0
   -2.4212    1.3102   -1.7054 C   0  0  0  0  0  0  0  0  0  0  0  0
   -3.7355    0.0955    0.0121 C   0  0  0  0  0  0  0  0  0  0  0  0
   -3.7621   -0.0853    1.5226 C   0  0  0  0  0  0  0  0  0  0  0  0
   -3.1993    1.1507    2.1541 C   0  0  0  0  0  0  0  0  0  0  0  0
   -3.6585    1.6549    3.1704 O   0  0  0  0  0  0  0  0  0  0  0  0
   -2.1292    1.6679    1.5064 O   0  0  0  0  0  0  0  0  0  0  0  0
    2.4491   -1.9495    1.0457 C   0  0  0  0  0  0  0  0  0  0  0  0
   -1.5893   -3.2564   -0.7133 H   0  0  0  0  0  0  0  0  0  0  0  0
   -1.1403   -2.1919    0.6245 H   0  0  0  0  0  0  0  0  0  0  0  0
   -2.8362   -2.4788    0.2277 H   0  0  0  0  0  0  0  0  0  0  0  0
   -2.6725   -1.3755   -1.8607 H   0  0  0  0  0  0  0  0  0  0  0  0
   -0.4806   -0.2799   -2.6967 H   0  0  0  0  0  0  0  0  0  0  0  0
   -0.9487   -1.9197   -2.9585 H   0  0  0  0  0  0  0  0  0  0  0  0
    0.6349   -2.6839   -1.1057 H   0  0  0  0  0  0  0  0  0  0  0  0
    1.2717   -2.1215   -2.6261 H   0  0  0  0  0  0  0  0  0  0  0  0
    1.2524    0.2134   -1.4294 H   0  0  0  0  0  0  0  0  0  0  0  0
    0.5944   -0.9810    0.8563 H   0  0  0  0  0  0  0  0  0  0  0  0
    2.4194    0.3721    2.0890 H   0  0  0  0  0  0  0  0  0  0  0  0
    4.8103    0.3593   -1.2629 H   0  0  0  0  0  0  0  0  0  0  0  0
    5.1970    2.1254    0.4824 H   0  0  0  0  0  0  0  0  0  0  0  0
    3.9424    2.6130    1.6302 H   0  0  0  0  0  0  0  0  0  0  0  0
    4.8138    1.0845    1.8613 H   0  0  0  0  0  0  0  0  0  0  0  0
    0.5869    1.6055    2.1986 H   0  0  0  0  0  0  0  0  0  0  0  0
    1.5096    2.6484    1.1498 H   0  0  0  0  0  0  0  0  0  0  0  0
   -0.5264    2.7577    0.1866 H   0  0  0  0  0  0  0  0  0  0  0  0
    0.1650    1.5501   -0.8233 H   0  0  0  0  0  0  0  0  0  0  0  0
   -1.0334   -0.0110    1.2111 H   0  0  0  0  0  0  0  0  0  0  0  0
   -2.7847    2.2700   -1.3194 H   0  0  0  0  0  0  0  0  0  0  0  0
   -3.1374    0.9660   -2.4607 H   0  0  0  0  0  0  0  0  0  0  0  0
   -1.4811    1.5132   -2.2222 H   0  0  0  0  0  0  0  0  0  0  0  0
   -4.3359    0.9867   -0.2206 H   0  0  0  0  0  0  0  0  0  0  0  0
   -4.2617   -0.7364   -0.4704 H   0  0  0  0  0  0  0  0  0  0  0  0
   -3.1977   -0.9545    1.8678 H   0  0  0  0  0  0  0  0  0  0  0  0
   -4.8007   -0.1992    1.8516 H   0  0  0  0  0  0  0  0  0  0  0  0
    3.5150   -1.8298    0.8285 H   0  0  0  0  0  0  0  0  0  0  0  0
    2.3425   -2.0110    2.1345 H   0  0  0  0  0  0  0  0  0  0  0  0
    2.1258   -2.9098    0.6327 H   0  0  0  0  0  0  0  0  0  0  0  0
  1  2  1  0
  2  3  1  0
  3  4  1  0
  4  5  1  0
  5  6  1  0
  6  7  1  0
  7  8  1  0
  8  9  1  0
  9 10  1  0
  9 11  1  0
  8 12  1  0
  7 13  1  0
 13 14  1  0
 14 15  1  0
 15 16  1  0
 16 17  1  0
 16 18  1  0
 18 19  1  0
 19 20  1  0
 20 21  2  0
 20 22  1  0
  6 23  1  0
 16  2  1  0
 10  5  1  0
 11  8  1  0
 22 15  1  0
  1 24  1  0
  1 25  1  0
  1 26  1  0
  2 27  1  0
  3 28  1  0
  3 29  1  0
  4 30  1  0
  4 31  1  0
  5 32  1  0
  6 33  1  0
  7 34  1  0
  9 35  1  0
 12 36  1  0
 12 37  1  0
 12 38  1  0
 13 39  1  0
 13 40  1  0
 14 41  1  0
 14 42  1  0
 15 43  1  0
 17 44  1  0
 17 45  1  0
 17 46  1  0
 18 47  1  0
 18 48  1  0
 19 49  1  0
 19 50  1  0
 23 51  1  0
 23 52  1  0
 23 53  1  0
M  END
$$$$
