
     RDKit          3D

 49 52  0  0  0  0  0  0  0  0999 V2000
    4.6521    3.0608    1.5505 C   0  0  0  0  0  0  0  0  0  0  0  0
    5.1967    2.5709    0.3661 C   0  0  0  0  0  0  0  0  0  0  0  0
    4.7189    1.3783   -0.1854 C   0  0  0  0  0  0  0  0  0  0  0  0
    3.6939    0.6551    0.4447 C   0  0  0  0  0  0  0  0  0  0  0  0
    3.1491    1.1706    1.6320 C   0  0  0  0  0  0  0  0  0  0  0  0
    3.6270    2.3625    2.1829 C   0  0  0  0  0  0  0  0  0  0  0  0
    3.1583   -0.5980   -0.1280 C   0  0  0  0  0  0  0  0  0  0  0  0
    3.9430   -1.5017   -0.7331 C   0  0  0  0  0  0  0  0  0  0  0  0
    3.3403   -2.7259   -1.2857 C   0  0  0  0  0  0  0  0  0  0  0  0
    4.0244   -3.5603   -1.8629 O   0  0  0  0  0  0  0  0  0  0  0  0
    1.8885   -2.8814   -1.1139 C   0  0  0  0  0  0  0  0  0  0  0  0
    1.1867   -1.8800   -0.4483 C   0  0  0  0  0  0  0  0  0  0  0  0
    1.7912   -0.7492    0.0389 O   0  0  0  0  0  0  0  0  0  0  0  0
   -0.1928   -2.0077   -0.2745 C   0  0  0  0  0  0  0  0  0  0  0  0
   -0.8570   -3.1351   -0.7622 C   0  0  0  0  0  0  0  0  0  0  0  0
   -0.1547   -4.1352   -1.4287 C   0  0  0  0  0  0  0  0  0  0  0  0
    1.2249   -4.0112   -1.6066 C   0  0  0  0  0  0  0  0  0  0  0  0
   -2.2037   -3.3016   -0.6126 O   0  0  0  0  0  0  0  0  0  0  0  0
   -0.8711   -1.0564    0.4394 O   0  0  0  0  0  0  0  0  0  0  0  0
   -1.4898   -0.0971   -0.4238 C   0  0  0  0  0  0  0  0  0  0  0  0
   -1.2497    1.3449    0.1057 C   0  0  0  0  0  0  0  0  0  0  0  0
   -2.3860    2.2261   -0.4041 C   0  0  0  0  0  0  0  0  0  0  0  0
   -3.7455    1.7330    0.1394 C   0  0  0  0  0  0  0  0  0  0  0  0
   -3.7025    0.2106    0.4011 C   0  0  0  0  0  0  0  0  0  0  0  0
   -2.8817   -0.4280   -0.5784 O   0  0  0  0  0  0  0  0  0  0  0  0
   -5.0905   -0.4085    0.4243 C   0  0  0  0  0  0  0  0  0  0  0  0
   -6.1522    0.1959    0.4691 O   0  0  0  0  0  0  0  0  0  0  0  0
   -5.0620   -1.7584    0.4256 O   0  0  0  0  0  0  0  0  0  0  0  0
   -4.7201    2.1376   -0.8381 O   0  0  0  0  0  0  0  0  0  0  0  0
   -2.1695    3.5813    0.0192 O   0  0  0  0  0  0  0  0  0  0  0  0
   -1.2491    1.4272    1.5445 O   0  0  0  0  0  0  0  0  0  0  0  0
    5.0239    3.9882    1.9786 H   0  0  0  0  0  0  0  0  0  0  0  0
    5.9917    3.1191   -0.1332 H   0  0  0  0  0  0  0  0  0  0  0  0
    5.1519    1.0326   -1.1212 H   0  0  0  0  0  0  0  0  0  0  0  0
    2.3463    0.6433    2.1454 H   0  0  0  0  0  0  0  0  0  0  0  0
    3.1967    2.7433    3.1057 H   0  0  0  0  0  0  0  0  0  0  0  0
    5.0145   -1.4002   -0.8440 H   0  0  0  0  0  0  0  0  0  0  0  0
   -0.6798   -5.0096   -1.8045 H   0  0  0  0  0  0  0  0  0  0  0  0
    1.7781   -4.7923   -2.1242 H   0  0  0  0  0  0  0  0  0  0  0  0
   -2.5697   -2.4822   -0.2219 H   0  0  0  0  0  0  0  0  0  0  0  0
   -1.0723   -0.1405   -1.4400 H   0  0  0  0  0  0  0  0  0  0  0  0
   -0.2660    1.7054   -0.2144 H   0  0  0  0  0  0  0  0  0  0  0  0
   -2.3818    2.2349   -1.5014 H   0  0  0  0  0  0  0  0  0  0  0  0
   -4.0147    2.2564    1.0648 H   0  0  0  0  0  0  0  0  0  0  0  0
   -3.2847    0.0123    1.3967 H   0  0  0  0  0  0  0  0  0  0  0  0
   -6.0009   -2.0393    0.4218 H   0  0  0  0  0  0  0  0  0  0  0  0
   -5.5977    1.8386   -0.5178 H   0  0  0  0  0  0  0  0  0  0  0  0
   -2.9190    4.0917   -0.3460 H   0  0  0  0  0  0  0  0  0  0  0  0
   -1.1336    2.3792    1.7410 H   0  0  0  0  0  0  0  0  0  0  0  0
  1  2  2  0
  2  3  1  0
  3  4  2  0
  4  5  1  0
  5  6  2  0
  4  7  1  0
  7  8  2  0
  8  9  1  0
  9 10  2  0
  9 11  1  0
 11 12  2  0
 12 13  1  0
 12 14  1  0
 14 15  2  0
 15 16  1  0
 16 17  2  0
 15 18  1  0
 14 19  1  0
 19 20  1  0
 20 21  1  0
 21 22  1  0
 22 23  1  0
 23 24  1  0
 24 25  1  0
 24 26  1  0
 26 27  2  0
 26 28  1  0
 23 29  1  0
 22 30  1  0
 21 31  1  0
  6  1  1  0
 13  7  1  0
 17 11  1  0
 25 20  1  0
  1 32  1  0
  2 33  1  0
  3 34  1  0
  5 35  1  0
  6 36  1  0
  8 37  1  0
 16 38  1  0
 17 39  1  0
 18 40  1  0
 20 41  1  0
 21 42  1  0
 22 43  1  0
 23 44  1  0
 24 45  1  0
 28 46  1  0
 29 47  1  0
 30 48  1  0
 31 49  1  0
M  END
$$$$
