
     RDKit          3D

 43 47  0  0  0  0  0  0  0  0999 V2000
   -5.9211    1.9422   -0.3170 C   0  0  0  0  0  0  0  0  0  0  0  0
   -5.0845    0.8117   -0.0918 O   0  0  0  0  0  0  0  0  0  0  0  0
   -3.7313    1.0077   -0.0118 C   0  0  0  0  0  0  0  0  0  0  0  0
   -2.9233   -0.1481    0.1093 C   0  0  0  0  0  0  0  0  0  0  0  0
   -1.5039   -0.0579    0.0747 C   0  0  0  0  0  0  0  0  0  0  0  0
   -0.9240    1.2563    0.0281 C   0  0  0  0  0  0  0  0  0  0  0  0
   -1.7440    2.3858   -0.0315 C   0  0  0  0  0  0  0  0  0  0  0  0
   -3.1310    2.2634   -0.0659 C   0  0  0  0  0  0  0  0  0  0  0  0
    0.4580    1.4446    0.0396 C   0  0  0  0  0  0  0  0  0  0  0  0
    1.2638    0.3354    0.0877 C   0  0  0  0  0  0  0  0  0  0  0  0
    2.7061    0.2248    0.1184 C   0  0  0  0  0  0  0  0  0  0  0  0
    3.6864    1.2060    0.1175 C   0  0  0  0  0  0  0  0  0  0  0  0
    4.9940    0.7591    0.1548 C   0  0  0  0  0  0  0  0  0  0  0  0
    5.3237   -0.5845    0.1913 C   0  0  0  0  0  0  0  0  0  0  0  0
    4.3706   -1.5828    0.1931 C   0  0  0  0  0  0  0  0  0  0  0  0
    3.0516   -1.1548    0.1561 C   0  0  0  0  0  0  0  0  0  0  0  0
    1.7998   -2.0022    0.1449 C   0  0  0  0  0  0  0  0  0  0  0  0
    0.6954   -0.9439    0.1065 C   0  0  0  0  0  0  0  0  0  0  0  0
   -0.6431   -1.1440    0.0901 N   0  0  0  0  0  0  0  0  0  0  0  0
   -1.1463   -2.5340    0.0590 C   0  0  0  0  0  0  0  0  0  0  0  0
    6.6687   -0.7836    0.2239 O   0  0  0  0  0  0  0  0  0  0  0  0
    7.1530    0.5766    0.2036 C   0  0  0  0  0  0  0  0  0  0  0  0
    6.0951    1.5586    0.1605 O   0  0  0  0  0  0  0  0  0  0  0  0
   -3.4908   -1.4007    0.2025 O   0  0  0  0  0  0  0  0  0  0  0  0
   -4.5006   -1.5328    1.2106 C   0  0  0  0  0  0  0  0  0  0  0  0
   -5.8731    2.6388    0.5261 H   0  0  0  0  0  0  0  0  0  0  0  0
   -5.6684    2.4392   -1.2593 H   0  0  0  0  0  0  0  0  0  0  0  0
   -6.9518    1.5835   -0.3948 H   0  0  0  0  0  0  0  0  0  0  0  0
   -1.3160    3.3886   -0.0704 H   0  0  0  0  0  0  0  0  0  0  0  0
   -3.7153    3.1774   -0.1385 H   0  0  0  0  0  0  0  0  0  0  0  0
    0.8949    2.4409    0.0123 H   0  0  0  0  0  0  0  0  0  0  0  0
    3.4650    2.2655    0.0899 H   0  0  0  0  0  0  0  0  0  0  0  0
    4.6526   -2.6283    0.2212 H   0  0  0  0  0  0  0  0  0  0  0  0
    1.7688   -2.6234   -0.7547 H   0  0  0  0  0  0  0  0  0  0  0  0
    1.7275   -2.5984    1.0588 H   0  0  0  0  0  0  0  0  0  0  0  0
   -1.7758   -2.6573   -0.8254 H   0  0  0  0  0  0  0  0  0  0  0  0
   -0.3261   -3.2477   -0.0271 H   0  0  0  0  0  0  0  0  0  0  0  0
   -1.6653   -2.7316    0.9997 H   0  0  0  0  0  0  0  0  0  0  0  0
    7.7545    0.7483    1.1035 H   0  0  0  0  0  0  0  0  0  0  0  0
    7.7905    0.7089   -0.6782 H   0  0  0  0  0  0  0  0  0  0  0  0
   -4.4084   -2.5370    1.6361 H   0  0  0  0  0  0  0  0  0  0  0  0
   -4.3819   -0.8135    2.0288 H   0  0  0  0  0  0  0  0  0  0  0  0
   -5.4939   -1.4570    0.7594 H   0  0  0  0  0  0  0  0  0  0  0  0
  1  2  1  0
  2  3  1  0
  3  4  1  0
  4  5  2  0
  5  6  1  0
  6  7  2  0
  7  8  1  0
  6  9  1  0
  9 10  2  0
 10 11  1  0
 11 12  1  0
 12 13  2  0
 13 14  1  0
 14 15  2  0
 15 16  1  0
 16 17  1  0
 17 18  1  0
 18 19  2  0
 19 20  1  0
 14 21  1  0
 21 22  1  0
 22 23  1  0
  4 24  1  0
 24 25  1  0
  8  3  2  0
 19  5  1  0
 18 10  1  0
 16 11  2  0
 23 13  1  0
  1 26  1  0
  1 27  1  0
  1 28  1  0
  7 29  1  0
  8 30  1  0
  9 31  1  0
 12 32  1  0
 15 33  1  0
 17 34  1  0
 17 35  1  0
 20 36  1  0
 20 37  1  0
 20 38  1  0
 22 39  1  0
 22 40  1  0
 25 41  1  0
 25 42  1  0
 25 43  1  0
M  CHG  1  19   1
M  END
$$$$
