
     RDKit          3D

 47 48  0  0  0  0  0  0  0  0999 V2000
   -7.3273    1.1893    1.5995 C   0  0  0  0  0  0  0  0  0  0  0  0
   -7.4036    0.5670    0.3220 O   0  0  0  0  0  0  0  0  0  0  0  0
   -6.2343    0.0635   -0.1882 C   0  0  0  0  0  0  0  0  0  0  0  0
   -6.3450   -0.5108   -1.4583 C   0  0  0  0  0  0  0  0  0  0  0  0
   -5.2461   -1.0545   -2.1079 C   0  0  0  0  0  0  0  0  0  0  0  0
   -4.0015   -1.0343   -1.4781 C   0  0  0  0  0  0  0  0  0  0  0  0
   -3.8611   -0.4829   -0.1956 C   0  0  0  0  0  0  0  0  0  0  0  0
   -4.9855    0.0785    0.4371 C   0  0  0  0  0  0  0  0  0  0  0  0
   -2.5602   -0.4170    0.4925 C   0  0  0  0  0  0  0  0  0  0  0  0
   -1.6220   -1.3706    0.3981 C   0  0  0  0  0  0  0  0  0  0  0  0
   -0.2996   -1.3479    1.0819 C   0  0  0  0  0  0  0  0  0  0  0  0
    0.4668   -2.2941    0.8903 O   0  0  0  0  0  0  0  0  0  0  0  0
    0.0913   -0.2124    1.9875 C   0  0  0  0  0  0  0  0  0  0  0  0
    0.4192    1.0639    1.2625 C   0  0  0  0  0  0  0  0  0  0  0  0
   -0.3542    2.0235    1.2934 O   0  0  0  0  0  0  0  0  0  0  0  0
    1.6857    1.2125    0.4944 C   0  0  0  0  0  0  0  0  0  0  0  0
    2.6261    0.2662    0.3588 C   0  0  0  0  0  0  0  0  0  0  0  0
    3.8705    0.4643   -0.4030 C   0  0  0  0  0  0  0  0  0  0  0  0
    5.0500   -0.1411    0.0630 C   0  0  0  0  0  0  0  0  0  0  0  0
    6.2543   -0.0043   -0.6370 C   0  0  0  0  0  0  0  0  0  0  0  0
    6.2637    0.7421   -1.8226 C   0  0  0  0  0  0  0  0  0  0  0  0
    5.0992    1.3336   -2.3085 C   0  0  0  0  0  0  0  0  0  0  0  0
    3.9043    1.1886   -1.6015 C   0  0  0  0  0  0  0  0  0  0  0  0
    7.4370    0.8841   -2.5147 O   0  0  0  0  0  0  0  0  0  0  0  0
    7.4530   -0.5476   -0.2552 O   0  0  0  0  0  0  0  0  0  0  0  0
    7.4674   -1.3522    0.9145 C   0  0  0  0  0  0  0  0  0  0  0  0
   -7.5542   -0.5422   -2.0979 O   0  0  0  0  0  0  0  0  0  0  0  0
   -8.3290    1.5467    1.8569 H   0  0  0  0  0  0  0  0  0  0  0  0
   -6.6596    2.0569    1.5771 H   0  0  0  0  0  0  0  0  0  0  0  0
   -7.0215    0.4729    2.3691 H   0  0  0  0  0  0  0  0  0  0  0  0
   -5.3570   -1.4839   -3.0990 H   0  0  0  0  0  0  0  0  0  0  0  0
   -3.1462   -1.4441   -2.0097 H   0  0  0  0  0  0  0  0  0  0  0  0
   -4.8626    0.5171    1.4222 H   0  0  0  0  0  0  0  0  0  0  0  0
   -2.4168    0.4689    1.1057 H   0  0  0  0  0  0  0  0  0  0  0  0
   -1.7793   -2.2658   -0.1978 H   0  0  0  0  0  0  0  0  0  0  0  0
   -0.7154   -0.0267    2.7060 H   0  0  0  0  0  0  0  0  0  0  0  0
    0.9491   -0.5130    2.6001 H   0  0  0  0  0  0  0  0  0  0  0  0
    1.8009    2.1956    0.0457 H   0  0  0  0  0  0  0  0  0  0  0  0
    2.5306   -0.7111    0.8249 H   0  0  0  0  0  0  0  0  0  0  0  0
    5.0088   -0.7127    0.9848 H   0  0  0  0  0  0  0  0  0  0  0  0
    5.1015    1.9023   -3.2330 H   0  0  0  0  0  0  0  0  0  0  0  0
    3.0016    1.6391   -2.0072 H   0  0  0  0  0  0  0  0  0  0  0  0
    7.2758    1.4138   -3.3102 H   0  0  0  0  0  0  0  0  0  0  0  0
    8.4885   -1.7193    1.0558 H   0  0  0  0  0  0  0  0  0  0  0  0
    6.8135   -2.2237    0.8039 H   0  0  0  0  0  0  0  0  0  0  0  0
    7.1999   -0.7660    1.7998 H   0  0  0  0  0  0  0  0  0  0  0  0
   -8.1770   -0.1121   -1.4801 H   0  0  0  0  0  0  0  0  0  0  0  0
  1  2  1  0
  2  3  1  0
  3  4  2  0
  4  5  1  0
  5  6  2  0
  6  7  1  0
  7  8  2  0
  7  9  1  0
  9 10  2  3
 10 11  1  0
 11 12  2  0
 11 13  1  0
 13 14  1  0
 14 15  2  0
 14 16  1  0
 16 17  2  3
 17 18  1  0
 18 19  2  0
 19 20  1  0
 20 21  2  0
 21 22  1  0
 22 23  2  0
 21 24  1  0
 20 25  1  0
 25 26  1  0
  4 27  1  0
  8  3  1  0
 23 18  1  0
  1 28  1  0
  1 29  1  0
  1 30  1  0
  5 31  1  0
  6 32  1  0
  8 33  1  0
  9 34  1  0
 10 35  1  0
 13 36  1  0
 13 37  1  0
 16 38  1  0
 17 39  1  0
 19 40  1  0
 22 41  1  0
 23 42  1  0
 24 43  1  0
 26 44  1  0
 26 45  1  0
 26 46  1  0
 27 47  1  0
M  END
$$$$
