
     RDKit          3D

127132  0  0  0  0  0  0  0  0999 V2000
   -5.5888   -6.4845    0.9222 C   0  0  0  0  0  0  0  0  0  0  0  0
   -5.5754   -4.9861    0.7848 C   0  0  0  0  0  0  0  0  0  0  0  0
   -4.4024   -4.3266    0.7173 C   0  0  0  0  0  0  0  0  0  0  0  0
   -4.1936   -2.8364    0.6411 C   0  0  0  0  0  0  0  0  0  0  0  0
   -3.8606   -2.3561   -0.7778 C   0  0  0  0  0  0  0  0  0  0  0  0
   -3.6110   -0.8128   -0.9574 C   0  0  0  0  0  0  0  0  0  0  0  0
   -3.2865   -0.6336   -2.4449 C   0  0  0  0  0  0  0  0  0  0  0  0
   -2.4350   -0.3615    0.0035 C   0  0  0  0  0  0  0  0  0  0  0  0
   -2.8766   -0.1225    1.4613 C   0  0  0  0  0  0  0  0  0  0  0  0
   -2.5134    1.3107    1.7766 C   0  0  0  0  0  0  0  0  0  0  0  0
   -1.2179    1.6207    0.9766 C   0  0  0  0  0  0  0  0  0  0  0  0
   -1.6066    0.9132   -0.3642 C   0  0  0  0  0  0  0  0  0  0  0  0
   -0.4236    0.6270   -1.2840 C   0  0  0  0  0  0  0  0  0  0  0  0
    0.8682    0.1638   -0.6032 C   0  0  0  0  0  0  0  0  0  0  0  0
    0.7811   -0.1555    0.9056 C   0  0  0  0  0  0  0  0  0  0  0  0
    0.1890    1.0915    1.6599 C   0  0  0  0  0  0  0  0  0  0  0  0
    1.3082    2.1885    1.6278 C   0  0  0  0  0  0  0  0  0  0  0  0
    2.7704    1.7168    1.6975 C   0  0  0  0  0  0  0  0  0  0  0  0
    2.9974    0.3286    2.3275 C   0  0  0  0  0  0  0  0  0  0  0  0
    2.1747   -0.7445    1.5072 C   0  0  0  0  0  0  0  0  0  0  0  0
    3.0687   -1.3371    0.3702 C   0  0  0  0  0  0  0  0  0  0  0  0
    4.4691   -1.7733    0.7993 C   0  0  0  0  0  0  0  0  0  0  0  0
    5.2647   -0.6066    1.3958 C   0  0  0  0  0  0  0  0  0  0  0  0
    4.5262   -0.0092    2.6342 C   0  0  0  0  0  0  0  0  0  0  0  0
    5.2974    1.2388    3.1375 C   0  0  0  0  0  0  0  0  0  0  0  0
    4.6227   -1.0175    3.8161 C   0  0  0  0  0  0  0  0  0  0  0  0
    5.4540    0.4360    0.4261 O   0  0  0  0  0  0  0  0  0  0  0  0
    6.6189    0.2825   -0.4086 C   0  0  0  0  0  0  0  0  0  0  0  0
    6.7714    1.6017   -1.2065 C   0  0  0  0  0  0  0  0  0  0  0  0
    7.9313    1.4859   -2.2056 C   0  0  0  0  0  0  0  0  0  0  0  0
    7.6844    0.2612   -3.1013 C   0  0  0  0  0  0  0  0  0  0  0  0
    7.5222   -0.9931   -2.2213 C   0  0  0  0  0  0  0  0  0  0  0  0
    6.4574   -0.8290   -1.2836 O   0  0  0  0  0  0  0  0  0  0  0  0
    7.2408   -2.2445   -3.0666 C   0  0  0  0  0  0  0  0  0  0  0  0
    6.0724   -2.0843   -3.8683 O   0  0  0  0  0  0  0  0  0  0  0  0
    8.7489    0.1162   -4.0452 O   0  0  0  0  0  0  0  0  0  0  0  0
    9.1728    1.3473   -1.4774 O   0  0  0  0  0  0  0  0  0  0  0  0
    6.9714    2.7165   -0.3140 O   0  0  0  0  0  0  0  0  0  0  0  0
    1.7610   -1.9301    2.4327 C   0  0  0  0  0  0  0  0  0  0  0  0
   -0.0941    0.7802    3.1561 C   0  0  0  0  0  0  0  0  0  0  0  0
   -0.1495    1.7955   -2.0699 O   0  0  0  0  0  0  0  0  0  0  0  0
   -1.2314    3.1595    0.7725 C   0  0  0  0  0  0  0  0  0  0  0  0
   -4.8688   -0.2064   -0.6060 O   0  0  0  0  0  0  0  0  0  0  0  0
   -5.1411    1.1421   -1.0104 C   0  0  0  0  0  0  0  0  0  0  0  0
   -6.3055    1.6524   -0.1141 C   0  0  0  0  0  0  0  0  0  0  0  0
   -7.5754    1.9224   -0.9397 C   0  0  0  0  0  0  0  0  0  0  0  0
   -7.2749    2.8397   -2.1422 C   0  0  0  0  0  0  0  0  0  0  0  0
   -6.0114    2.3623   -2.9001 C   0  0  0  0  0  0  0  0  0  0  0  0
   -5.5443    1.1060   -2.3867 O   0  0  0  0  0  0  0  0  0  0  0  0
   -4.8861    3.4039   -3.0719 C   0  0  0  0  0  0  0  0  0  0  0  0
   -4.4579    3.9754   -1.8378 O   0  0  0  0  0  0  0  0  0  0  0  0
   -7.1577    4.2187   -1.7533 O   0  0  0  0  0  0  0  0  0  0  0  0
   -8.1651    0.6933   -1.3853 O   0  0  0  0  0  0  0  0  0  0  0  0
   -5.9075    2.8473    0.5775 O   0  0  0  0  0  0  0  0  0  0  0  0
   -6.9348   -4.3545    0.7001 C   0  0  0  0  0  0  0  0  0  0  0  0
   -6.0530   -6.9377    0.0387 H   0  0  0  0  0  0  0  0  0  0  0  0
   -4.5874   -6.9020    1.0389 H   0  0  0  0  0  0  0  0  0  0  0  0
   -6.1691   -6.7751    1.8113 H   0  0  0  0  0  0  0  0  0  0  0  0
   -3.4750   -4.9105    0.7555 H   0  0  0  0  0  0  0  0  0  0  0  0
   -3.3482   -2.6346    1.3107 H   0  0  0  0  0  0  0  0  0  0  0  0
   -5.0484   -2.2839    1.0508 H   0  0  0  0  0  0  0  0  0  0  0  0
   -4.7038   -2.6431   -1.4238 H   0  0  0  0  0  0  0  0  0  0  0  0
   -2.9828   -2.9149   -1.1404 H   0  0  0  0  0  0  0  0  0  0  0  0
   -3.0787    0.4042   -2.7140 H   0  0  0  0  0  0  0  0  0  0  0  0
   -4.1355   -0.9532   -3.0679 H   0  0  0  0  0  0  0  0  0  0  0  0
   -2.4232   -1.2466   -2.7445 H   0  0  0  0  0  0  0  0  0  0  0  0
   -1.7381   -1.2100   -0.0003 H   0  0  0  0  0  0  0  0  0  0  0  0
   -3.9462   -0.2718    1.6326 H   0  0  0  0  0  0  0  0  0  0  0  0
   -2.3454   -0.8214    2.1222 H   0  0  0  0  0  0  0  0  0  0  0  0
   -3.3373    1.9438    1.4200 H   0  0  0  0  0  0  0  0  0  0  0  0
   -2.4771    1.4984    2.8530 H   0  0  0  0  0  0  0  0  0  0  0  0
   -2.2658    1.6031   -0.9051 H   0  0  0  0  0  0  0  0  0  0  0  0
   -0.7144   -0.1363   -2.0107 H   0  0  0  0  0  0  0  0  0  0  0  0
    1.1712   -0.7434   -1.1450 H   0  0  0  0  0  0  0  0  0  0  0  0
    1.6541    0.9098   -0.7991 H   0  0  0  0  0  0  0  0  0  0  0  0
    0.0439   -0.9555    0.9940 H   0  0  0  0  0  0  0  0  0  0  0  0
    1.2539    2.7805    0.7095 H   0  0  0  0  0  0  0  0  0  0  0  0
    1.1393    2.9029    2.4427 H   0  0  0  0  0  0  0  0  0  0  0  0
    3.3100    2.4893    2.2470 H   0  0  0  0  0  0  0  0  0  0  0  0
    3.1959    1.7301    0.6883 H   0  0  0  0  0  0  0  0  0  0  0  0
    2.5631    0.4056    3.3235 H   0  0  0  0  0  0  0  0  0  0  0  0
    2.5636   -2.1953   -0.0891 H   0  0  0  0  0  0  0  0  0  0  0  0
    3.2200   -0.5895   -0.4126 H   0  0  0  0  0  0  0  0  0  0  0  0
    4.4266   -2.6124    1.4965 H   0  0  0  0  0  0  0  0  0  0  0  0
    4.9734   -2.1692   -0.0862 H   0  0  0  0  0  0  0  0  0  0  0  0
    6.2424   -0.9723    1.7191 H   0  0  0  0  0  0  0  0  0  0  0  0
    4.8023    1.6835    4.0128 H   0  0  0  0  0  0  0  0  0  0  0  0
    5.3875    2.0169    2.3745 H   0  0  0  0  0  0  0  0  0  0  0  0
    6.3237    0.9837    3.4356 H   0  0  0  0  0  0  0  0  0  0  0  0
    4.1120   -0.6349    4.7014 H   0  0  0  0  0  0  0  0  0  0  0  0
    5.6683   -1.1924    4.0995 H   0  0  0  0  0  0  0  0  0  0  0  0
    4.2058   -1.9968    3.5993 H   0  0  0  0  0  0  0  0  0  0  0  0
    7.4945    0.1284    0.2375 H   0  0  0  0  0  0  0  0  0  0  0  0
    5.8424    1.8060   -1.7506 H   0  0  0  0  0  0  0  0  0  0  0  0
    8.0239    2.4095   -2.7955 H   0  0  0  0  0  0  0  0  0  0  0  0
    6.7684    0.4260   -3.6651 H   0  0  0  0  0  0  0  0  0  0  0  0
    8.4501   -1.1885   -1.6580 H   0  0  0  0  0  0  0  0  0  0  0  0
    8.0771   -2.4646   -3.7329 H   0  0  0  0  0  0  0  0  0  0  0  0
    7.0764   -3.1079   -2.4116 H   0  0  0  0  0  0  0  0  0  0  0  0
    6.0297   -2.8282   -4.4966 H   0  0  0  0  0  0  0  0  0  0  0  0
    9.5942    0.0689   -3.5827 H   0  0  0  0  0  0  0  0  0  0  0  0
    9.9208    1.3678   -2.1201 H   0  0  0  0  0  0  0  0  0  0  0  0
    6.4476    2.5129    0.4815 H   0  0  0  0  0  0  0  0  0  0  0  0
    2.5628   -2.6418    2.5926 H   0  0  0  0  0  0  0  0  0  0  0  0
    1.4264   -1.5836    3.4068 H   0  0  0  0  0  0  0  0  0  0  0  0
    0.9568   -2.5266    1.9877 H   0  0  0  0  0  0  0  0  0  0  0  0
   -0.7170   -0.1092    3.2708 H   0  0  0  0  0  0  0  0  0  0  0  0
   -0.5794    1.6243    3.6439 H   0  0  0  0  0  0  0  0  0  0  0  0
    0.7789    0.6043    3.7660 H   0  0  0  0  0  0  0  0  0  0  0  0
    0.6044    1.5935   -2.6473 H   0  0  0  0  0  0  0  0  0  0  0  0
   -1.0154    3.6838    1.7106 H   0  0  0  0  0  0  0  0  0  0  0  0
   -2.2138    3.5136    0.4270 H   0  0  0  0  0  0  0  0  0  0  0  0
   -0.5302    3.4879    0.0023 H   0  0  0  0  0  0  0  0  0  0  0  0
   -4.2556    1.7546   -0.8790 H   0  0  0  0  0  0  0  0  0  0  0  0
   -6.5202    0.9062    0.6588 H   0  0  0  0  0  0  0  0  0  0  0  0
   -8.3209    2.4076   -0.2949 H   0  0  0  0  0  0  0  0  0  0  0  0
   -8.1244    2.7944   -2.8377 H   0  0  0  0  0  0  0  0  0  0  0  0
   -6.3416    2.1114   -3.9140 H   0  0  0  0  0  0  0  0  0  0  0  0
   -5.2129    4.2200   -3.7253 H   0  0  0  0  0  0  0  0  0  0  0  0
   -4.0114    2.9282   -3.5198 H   0  0  0  0  0  0  0  0  0  0  0  0
   -5.2635    4.3372   -1.4090 H   0  0  0  0  0  0  0  0  0  0  0  0
   -7.9833    4.4483   -1.2774 H   0  0  0  0  0  0  0  0  0  0  0  0
   -7.4400    0.1513   -1.7571 H   0  0  0  0  0  0  0  0  0  0  0  0
   -6.5184    2.9757    1.3261 H   0  0  0  0  0  0  0  0  0  0  0  0
   -7.5660   -4.6923    1.5302 H   0  0  0  0  0  0  0  0  0  0  0  0
   -6.9044   -3.2666    0.7244 H   0  0  0  0  0  0  0  0  0  0  0  0
   -7.4108   -4.6421   -0.2392 H   0  0  0  0  0  0  0  0  0  0  0  0
  1  2  1  0
  2  3  2  3
  3  4  1  0
  4  5  1  0
  5  6  1  0
  6  7  1  0
  6  8  1  0
  8  9  1  0
  9 10  1  0
 10 11  1  0
 11 12  1  0
 12 13  1  0
 13 14  1  0
 14 15  1  0
 15 16  1  0
 16 17  1  0
 17 18  1  0
 18 19  1  0
 19 20  1  0
 20 21  1  0
 21 22  1  0
 22 23  1  0
 23 24  1  0
 24 25  1  0
 24 26  1  0
 23 27  1  0
 27 28  1  0
 28 29  1  0
 29 30  1  0
 30 31  1  0
 31 32  1  0
 32 33  1  0
 32 34  1  0
 34 35  1  0
 31 36  1  0
 30 37  1  0
 29 38  1  0
 20 39  1  0
 16 40  1  0
 13 41  1  0
 11 42  1  0
  6 43  1  0
 43 44  1  0
 44 45  1  0
 45 46  1  0
 46 47  1  0
 47 48  1  0
 48 49  1  0
 48 50  1  0
 50 51  1  0
 47 52  1  0
 46 53  1  0
 45 54  1  0
  2 55  1  0
 12  8  1  0
 16 11  1  0
 20 15  1  0
 24 19  1  0
 33 28  1  0
 49 44  1  0
  1 56  1  0
  1 57  1  0
  1 58  1  0
  3 59  1  0
  4 60  1  0
  4 61  1  0
  5 62  1  0
  5 63  1  0
  7 64  1  0
  7 65  1  0
  7 66  1  0
  8 67  1  0
  9 68  1  0
  9 69  1  0
 10 70  1  0
 10 71  1  0
 12 72  1  0
 13 73  1  0
 14 74  1  0
 14 75  1  0
 15 76  1  0
 17 77  1  0
 17 78  1  0
 18 79  1  0
 18 80  1  0
 19 81  1  0
 21 82  1  0
 21 83  1  0
 22 84  1  0
 22 85  1  0
 23 86  1  0
 25 87  1  0
 25 88  1  0
 25 89  1  0
 26 90  1  0
 26 91  1  0
 26 92  1  0
 28 93  1  0
 29 94  1  0
 30 95  1  0
 31 96  1  0
 32 97  1  0
 34 98  1  0
 34 99  1  0
 35100  1  0
 36101  1  0
 37102  1  0
 38103  1  0
 39104  1  0
 39105  1  0
 39106  1  0
 40107  1  0
 40108  1  0
 40109  1  0
 41110  1  0
 42111  1  0
 42112  1  0
 42113  1  0
 44114  1  0
 45115  1  0
 46116  1  0
 47117  1  0
 48118  1  0
 50119  1  0
 50120  1  0
 51121  1  0
 52122  1  0
 53123  1  0
 54124  1  0
 55125  1  0
 55126  1  0
 55127  1  0
M  END
$$$$
