
     RDKit          3D

119125  0  0  0  0  0  0  0  0999 V2000
    1.9068   -2.8873   -1.6127 C   0  0  0  0  0  0  0  0  0  0  0  0
    1.6139   -2.3797   -0.1622 C   0  0  0  0  0  0  0  0  0  0  0  0
    0.1192   -1.8032    0.0278 C   0  0  0  0  0  0  0  0  0  0  0  0
   -0.8414   -2.4310   -1.0328 C   0  0  0  0  0  0  0  0  0  0  0  0
   -2.2584   -1.8638   -1.1737 C   0  0  0  0  0  0  0  0  0  0  0  0
   -2.3048   -0.3115   -1.3034 C   0  0  0  0  0  0  0  0  0  0  0  0
   -1.5326    0.2121   -0.0508 C   0  0  0  0  0  0  0  0  0  0  0  0
   -0.0111   -0.2393    0.1327 C   0  0  0  0  0  0  0  0  0  0  0  0
    0.9775    0.3533   -0.8906 C   0  0  0  0  0  0  0  0  0  0  0  0
    2.4564    0.0177   -0.6050 C   0  0  0  0  0  0  0  0  0  0  0  0
    2.7542   -1.3212    0.1340 C   0  0  0  0  0  0  0  0  0  0  0  0
    3.2327   -1.2136    1.6278 C   0  0  0  0  0  0  0  0  0  0  0  0
    4.2534   -0.0793    1.9060 C   0  0  0  0  0  0  0  0  0  0  0  0
    4.6615   -0.1337    3.3870 C   0  0  0  0  0  0  0  0  0  0  0  0
    5.1968   -1.5136    3.7902 C   0  0  0  0  0  0  0  0  0  0  0  0
    4.2127   -2.5956    3.3501 C   0  0  0  0  0  0  0  0  0  0  0  0
    3.8696   -2.4644    1.9662 O   0  0  0  0  0  0  0  0  0  0  0  0
    4.8697   -3.9564    3.5217 C   0  0  0  0  0  0  0  0  0  0  0  0
    5.8634   -4.3742    2.9436 O   0  0  0  0  0  0  0  0  0  0  0  0
    4.2124   -4.7583    4.3862 O   0  0  0  0  0  0  0  0  0  0  0  0
    5.3744   -1.5209    5.2153 O   0  0  0  0  0  0  0  0  0  0  0  0
    5.6459    0.8655    3.7071 O   0  0  0  0  0  0  0  0  0  0  0  0
    5.4153   -0.3027    1.0994 O   0  0  0  0  0  0  0  0  0  0  0  0
    6.0418    0.8791    0.6116 C   0  0  0  0  0  0  0  0  0  0  0  0
    7.5589    0.6368    0.7241 C   0  0  0  0  0  0  0  0  0  0  0  0
    8.3369    1.6870   -0.0740 C   0  0  0  0  0  0  0  0  0  0  0  0
    7.7711    1.8379   -1.4894 C   0  0  0  0  0  0  0  0  0  0  0  0
    6.2785    2.1569   -1.3834 C   0  0  0  0  0  0  0  0  0  0  0  0
    5.6250    1.0615   -0.7385 O   0  0  0  0  0  0  0  0  0  0  0  0
    5.6954    2.4071   -2.7694 C   0  0  0  0  0  0  0  0  0  0  0  0
    4.8300    1.7594   -3.3367 O   0  0  0  0  0  0  0  0  0  0  0  0
    6.2139    3.5049   -3.3609 O   0  0  0  0  0  0  0  0  0  0  0  0
    7.9950    0.5937   -2.1836 O   0  0  0  0  0  0  0  0  0  0  0  0
    9.7145    1.2889   -0.1243 O   0  0  0  0  0  0  0  0  0  0  0  0
    7.9706    0.6791    2.1058 O   0  0  0  0  0  0  0  0  0  0  0  0
    0.4252    0.3509    1.5186 C   0  0  0  0  0  0  0  0  0  0  0  0
   -2.3737   -0.2225    1.1855 C   0  0  0  0  0  0  0  0  0  0  0  0
   -1.9372   -0.7915    2.1837 O   0  0  0  0  0  0  0  0  0  0  0  0
   -3.8098    0.0836    1.1949 C   0  0  0  0  0  0  0  0  0  0  0  0
   -4.4916    0.3364    0.0699 C   0  0  0  0  0  0  0  0  0  0  0  0
   -3.8409    0.2767   -1.3191 C   0  0  0  0  0  0  0  0  0  0  0  0
   -3.9070    1.7321   -1.9017 C   0  0  0  0  0  0  0  0  0  0  0  0
   -4.6975    2.7671   -1.0897 C   0  0  0  0  0  0  0  0  0  0  0  0
   -6.0415    2.2954   -0.4788 C   0  0  0  0  0  0  0  0  0  0  0  0
   -5.9045    0.9157    0.2336 C   0  0  0  0  0  0  0  0  0  0  0  0
   -7.0351   -0.0889   -0.0815 C   0  0  0  0  0  0  0  0  0  0  0  0
   -8.4435    0.5420   -0.0704 C   0  0  0  0  0  0  0  0  0  0  0  0
   -8.5079    1.7719   -1.0125 C   0  0  0  0  0  0  0  0  0  0  0  0
   -7.1486    2.2413   -1.5534 C   0  0  0  0  0  0  0  0  0  0  0  0
   -8.8446    0.9434    1.3645 C   0  0  0  0  0  0  0  0  0  0  0  0
   -9.4591   -0.5161   -0.5483 C   0  0  0  0  0  0  0  0  0  0  0  0
   -6.4005    3.4074    0.5226 C   0  0  0  0  0  0  0  0  0  0  0  0
   -7.1899    4.3214    0.3488 O   0  0  0  0  0  0  0  0  0  0  0  0
   -5.6884    3.3662    1.6667 O   0  0  0  0  0  0  0  0  0  0  0  0
   -4.6748   -0.6431   -2.2561 C   0  0  0  0  0  0  0  0  0  0  0  0
   -1.6245    0.1002   -2.6434 C   0  0  0  0  0  0  0  0  0  0  0  0
    1.7085   -3.6563    0.7108 C   0  0  0  0  0  0  0  0  0  0  0  0
    2.9346   -3.2605   -1.6966 H   0  0  0  0  0  0  0  0  0  0  0  0
    1.2678   -3.7315   -1.8951 H   0  0  0  0  0  0  0  0  0  0  0  0
    1.7890   -2.0974   -2.3602 H   0  0  0  0  0  0  0  0  0  0  0  0
   -0.2399   -2.1862    0.9922 H   0  0  0  0  0  0  0  0  0  0  0  0
   -0.4001   -2.3593   -2.0283 H   0  0  0  0  0  0  0  0  0  0  0  0
   -0.9314   -3.5050   -0.8287 H   0  0  0  0  0  0  0  0  0  0  0  0
   -2.7013   -2.3319   -2.0614 H   0  0  0  0  0  0  0  0  0  0  0  0
   -2.8615   -2.2131   -0.3278 H   0  0  0  0  0  0  0  0  0  0  0  0
   -1.5473    1.3119   -0.0637 H   0  0  0  0  0  0  0  0  0  0  0  0
    0.7751   -0.0207   -1.8926 H   0  0  0  0  0  0  0  0  0  0  0  0
    0.8629    1.4427   -0.9475 H   0  0  0  0  0  0  0  0  0  0  0  0
    2.9139    0.8735   -0.1060 H   0  0  0  0  0  0  0  0  0  0  0  0
    2.9672   -0.0176   -1.5779 H   0  0  0  0  0  0  0  0  0  0  0  0
    3.6579   -1.7095   -0.3624 H   0  0  0  0  0  0  0  0  0  0  0  0
    2.3718   -1.1101    2.2894 H   0  0  0  0  0  0  0  0  0  0  0  0
    3.8209    0.9041    1.7014 H   0  0  0  0  0  0  0  0  0  0  0  0
    3.7879    0.1076    4.0045 H   0  0  0  0  0  0  0  0  0  0  0  0
    6.1863   -1.6708    3.3444 H   0  0  0  0  0  0  0  0  0  0  0  0
    3.2975   -2.5699    3.9538 H   0  0  0  0  0  0  0  0  0  0  0  0
    4.7249   -5.5935    4.3570 H   0  0  0  0  0  0  0  0  0  0  0  0
    5.8164   -0.6767    5.4337 H   0  0  0  0  0  0  0  0  0  0  0  0
    6.4793    0.6285    3.2464 H   0  0  0  0  0  0  0  0  0  0  0  0
    5.7577    1.7557    1.2085 H   0  0  0  0  0  0  0  0  0  0  0  0
    7.8068   -0.3692    0.3659 H   0  0  0  0  0  0  0  0  0  0  0  0
    8.3097    2.6488    0.4524 H   0  0  0  0  0  0  0  0  0  0  0  0
    8.3270    2.6065   -2.0365 H   0  0  0  0  0  0  0  0  0  0  0  0
    6.0977    3.0673   -0.7966 H   0  0  0  0  0  0  0  0  0  0  0  0
    5.7644    3.5330   -4.2341 H   0  0  0  0  0  0  0  0  0  0  0  0
    7.2355    0.0050   -1.9964 H   0  0  0  0  0  0  0  0  0  0  0  0
    9.7944    0.6865   -0.8941 H   0  0  0  0  0  0  0  0  0  0  0  0
    8.9493    0.6508    2.0749 H   0  0  0  0  0  0  0  0  0  0  0  0
    0.3562   -0.3868    2.3223 H   0  0  0  0  0  0  0  0  0  0  0  0
   -0.1945    1.2111    1.8020 H   0  0  0  0  0  0  0  0  0  0  0  0
    1.4351    0.7587    1.5363 H   0  0  0  0  0  0  0  0  0  0  0  0
   -4.2550    0.1373    2.1834 H   0  0  0  0  0  0  0  0  0  0  0  0
   -4.3086    1.7120   -2.9230 H   0  0  0  0  0  0  0  0  0  0  0  0
   -2.9047    2.1609   -1.9991 H   0  0  0  0  0  0  0  0  0  0  0  0
   -4.0318    3.1145   -0.2849 H   0  0  0  0  0  0  0  0  0  0  0  0
   -4.8615    3.6541   -1.7168 H   0  0  0  0  0  0  0  0  0  0  0  0
   -6.0358    1.0920    1.3102 H   0  0  0  0  0  0  0  0  0  0  0  0
   -6.9891   -0.9138    0.6433 H   0  0  0  0  0  0  0  0  0  0  0  0
   -6.8926   -0.5586   -1.0537 H   0  0  0  0  0  0  0  0  0  0  0  0
   -9.1486    1.5625   -1.8783 H   0  0  0  0  0  0  0  0  0  0  0  0
   -8.9981    2.6076   -0.4995 H   0  0  0  0  0  0  0  0  0  0  0  0
   -6.8504    1.5750   -2.3680 H   0  0  0  0  0  0  0  0  0  0  0  0
   -7.2826    3.2258   -2.0189 H   0  0  0  0  0  0  0  0  0  0  0  0
   -8.7609    0.0914    2.0474 H   0  0  0  0  0  0  0  0  0  0  0  0
   -8.2190    1.7467    1.7603 H   0  0  0  0  0  0  0  0  0  0  0  0
   -9.8821    1.2936    1.4001 H   0  0  0  0  0  0  0  0  0  0  0  0
   -9.2590   -0.8185   -1.5811 H   0  0  0  0  0  0  0  0  0  0  0  0
  -10.4815   -0.1269   -0.5088 H   0  0  0  0  0  0  0  0  0  0  0  0
   -9.4188   -1.4149    0.0768 H   0  0  0  0  0  0  0  0  0  0  0  0
   -5.9991    4.1496    2.1678 H   0  0  0  0  0  0  0  0  0  0  0  0
   -4.1438   -0.8955   -3.1789 H   0  0  0  0  0  0  0  0  0  0  0  0
   -5.5994   -0.1684   -2.5918 H   0  0  0  0  0  0  0  0  0  0  0  0
   -4.9409   -1.5851   -1.7636 H   0  0  0  0  0  0  0  0  0  0  0  0
   -1.1763    1.0962   -2.5783 H   0  0  0  0  0  0  0  0  0  0  0  0
   -0.8451   -0.5885   -2.9689 H   0  0  0  0  0  0  0  0  0  0  0  0
   -2.3308    0.1230   -3.4790 H   0  0  0  0  0  0  0  0  0  0  0  0
    1.5396   -3.4389    1.7705 H   0  0  0  0  0  0  0  0  0  0  0  0
    2.6821   -4.1477    0.6030 H   0  0  0  0  0  0  0  0  0  0  0  0
    0.9507   -4.3914    0.4163 H   0  0  0  0  0  0  0  0  0  0  0  0
  1  2  1  0
  2  3  1  0
  3  4  1  0
  4  5  1  0
  5  6  1  0
  6  7  1  0
  7  8  1  0
  8  9  1  0
  9 10  1  0
 10 11  1  0
 11 12  1  0
 12 13  1  0
 13 14  1  0
 14 15  1  0
 15 16  1  0
 16 17  1  0
 16 18  1  0
 18 19  2  0
 18 20  1  0
 15 21  1  0
 14 22  1  0
 13 23  1  0
 23 24  1  0
 24 25  1  0
 25 26  1  0
 26 27  1  0
 27 28  1  0
 28 29  1  0
 28 30  1  0
 30 31  2  0
 30 32  1  0
 27 33  1  0
 26 34  1  0
 25 35  1  0
  8 36  1  0
  7 37  1  0
 37 38  2  0
 37 39  1  0
 39 40  2  0
 40 41  1  0
 41 42  1  0
 42 43  1  0
 43 44  1  0
 44 45  1  0
 45 46  1  0
 46 47  1  0
 47 48  1  0
 48 49  1  0
 47 50  1  0
 47 51  1  0
 44 52  1  0
 52 53  2  0
 52 54  1  0
 41 55  1  0
  6 56  1  0
  2 57  1  0
 11  2  1  0
  8  3  1  0
 41  6  1  0
 17 12  1  0
 29 24  1  0
 45 40  1  0
 49 44  1  0
  1 58  1  0
  1 59  1  0
  1 60  1  0
  3 61  1  0
  4 62  1  0
  4 63  1  0
  5 64  1  0
  5 65  1  0
  7 66  1  0
  9 67  1  0
  9 68  1  0
 10 69  1  0
 10 70  1  0
 11 71  1  0
 12 72  1  0
 13 73  1  0
 14 74  1  0
 15 75  1  0
 16 76  1  0
 20 77  1  0
 21 78  1  0
 22 79  1  0
 24 80  1  0
 25 81  1  0
 26 82  1  0
 27 83  1  0
 28 84  1  0
 32 85  1  0
 33 86  1  0
 34 87  1  0
 35 88  1  0
 36 89  1  0
 36 90  1  0
 36 91  1  0
 39 92  1  0
 42 93  1  0
 42 94  1  0
 43 95  1  0
 43 96  1  0
 45 97  1  0
 46 98  1  0
 46 99  1  0
 48100  1  0
 48101  1  0
 49102  1  0
 49103  1  0
 50104  1  0
 50105  1  0
 50106  1  0
 51107  1  0
 51108  1  0
 51109  1  0
 54110  1  0
 55111  1  0
 55112  1  0
 55113  1  0
 56114  1  0
 56115  1  0
 56116  1  0
 57117  1  0
 57118  1  0
 57119  1  0
M  END
$$$$
