
     RDKit          3D

 40 43  0  0  0  0  0  0  0  0999 V2000
   -3.7873   -0.0563    1.8169 C   0  0  0  0  0  0  0  0  0  0  0  0
   -3.1532   -0.1091    0.4062 C   0  0  0  0  0  0  0  0  0  0  0  0
   -3.5325    1.2171   -0.2914 C   0  0  0  0  0  0  0  0  0  0  0  0
   -2.7398    1.4252   -1.5655 C   0  0  0  0  0  0  0  0  0  0  0  0
   -1.2575    1.5429   -1.2393 C   0  0  0  0  0  0  0  0  0  0  0  0
   -0.7225    0.4929   -0.2827 C   0  0  0  0  0  0  0  0  0  0  0  0
   -1.6264   -0.2999    0.4777 C   0  0  0  0  0  0  0  0  0  0  0  0
   -1.1094   -1.3172    1.3016 C   0  0  0  0  0  0  0  0  0  0  0  0
    0.2588   -1.5365    1.4165 C   0  0  0  0  0  0  0  0  0  0  0  0
    1.1610   -0.7300    0.7199 C   0  0  0  0  0  0  0  0  0  0  0  0
    0.6853    0.3068   -0.1224 C   0  0  0  0  0  0  0  0  0  0  0  0
    1.6978    1.2041   -0.8126 C   0  0  0  0  0  0  0  0  0  0  0  0
    1.3647    2.1851   -1.4632 O   0  0  0  0  0  0  0  0  0  0  0  0
    3.0683    0.8219   -0.6113 C   0  0  0  0  0  0  0  0  0  0  0  0
    3.5347   -0.2016    0.1731 C   0  0  0  0  0  0  0  0  0  0  0  0
    2.6178   -1.0335    0.9072 C   0  0  0  0  0  0  0  0  0  0  0  0
    2.9916   -1.9410    1.6397 O   0  0  0  0  0  0  0  0  0  0  0  0
    4.9543   -0.1851    0.0647 C   0  0  0  0  0  0  0  0  0  0  0  0
    5.2384    0.8639   -0.7896 C   0  0  0  0  0  0  0  0  0  0  0  0
    4.0989    1.4807   -1.2022 O   0  0  0  0  0  0  0  0  0  0  0  0
    5.9201   -1.0942    0.7269 C   0  0  0  0  0  0  0  0  0  0  0  0
   -3.7703   -1.3003   -0.3599 C   0  0  0  0  0  0  0  0  0  0  0  0
   -4.8565    0.1797    1.7569 H   0  0  0  0  0  0  0  0  0  0  0  0
   -3.3096    0.7113    2.4372 H   0  0  0  0  0  0  0  0  0  0  0  0
   -3.7051   -1.0092    2.3501 H   0  0  0  0  0  0  0  0  0  0  0  0
   -3.3440    2.0663    0.3802 H   0  0  0  0  0  0  0  0  0  0  0  0
   -4.6058    1.2372   -0.5188 H   0  0  0  0  0  0  0  0  0  0  0  0
   -2.9095    0.6004   -2.2666 H   0  0  0  0  0  0  0  0  0  0  0  0
   -3.0745    2.3378   -2.0725 H   0  0  0  0  0  0  0  0  0  0  0  0
   -0.7312    1.4742   -2.1977 H   0  0  0  0  0  0  0  0  0  0  0  0
   -1.0711    2.5313   -0.8012 H   0  0  0  0  0  0  0  0  0  0  0  0
   -1.7747   -1.9694    1.8650 H   0  0  0  0  0  0  0  0  0  0  0  0
    0.6134   -2.3393    2.0619 H   0  0  0  0  0  0  0  0  0  0  0  0
    6.1568    1.2805   -1.1816 H   0  0  0  0  0  0  0  0  0  0  0  0
    5.8357   -1.0157    1.8154 H   0  0  0  0  0  0  0  0  0  0  0  0
    6.9504   -0.8495    0.4490 H   0  0  0  0  0  0  0  0  0  0  0  0
    5.7296   -2.1325    0.4374 H   0  0  0  0  0  0  0  0  0  0  0  0
   -3.6268   -2.2444    0.1788 H   0  0  0  0  0  0  0  0  0  0  0  0
   -4.8496   -1.1661   -0.4957 H   0  0  0  0  0  0  0  0  0  0  0  0
   -3.3204   -1.4285   -1.3504 H   0  0  0  0  0  0  0  0  0  0  0  0
  1  2  1  0
  2  3  1  0
  3  4  1  0
  4  5  1  0
  5  6  1  0
  6  7  2  0
  7  8  1  0
  8  9  2  0
  9 10  1  0
 10 11  2  0
 11 12  1  0
 12 13  2  0
 12 14  1  0
 14 15  2  0
 15 16  1  0
 16 17  2  0
 15 18  1  0
 18 19  2  0
 19 20  1  0
 18 21  1  0
  2 22  1  0
  7  2  1  0
 11  6  1  0
 16 10  1  0
 20 14  1  0
  1 23  1  0
  1 24  1  0
  1 25  1  0
  3 26  1  0
  3 27  1  0
  4 28  1  0
  4 29  1  0
  5 30  1  0
  5 31  1  0
  8 32  1  0
  9 33  1  0
 19 34  1  0
 21 35  1  0
 21 36  1  0
 21 37  1  0
 22 38  1  0
 22 39  1  0
 22 40  1  0
M  END
$$$$
